/*--------------------------------*- C++ -*----------------------------------*\
| =========                 |                                                 |
| \\      /  F ield         | OpenFOAM: The Open Source CFD Toolbox           |
|  \\    /   O peration     | Version:  2412                                  |
|   \\  /    A nd           | Website:  www.openfoam.com                      |
|    \\/     M anipulation  |                                                 |
\*---------------------------------------------------------------------------*/
FoamFile
{
    version     2.0;
    format      ascii;
    arch        "LSB;label=32;scalar=64";
    class       polyBoundaryMesh;
    location    "constant/polyMesh";
    object      boundary;
}
// * * * * * * * * * * * * * * * * * * * * * * * * * * * * * * * * * * * * * //

6
(
    inlet
    {
        type            patch;
        nFaces          12;
        startFace       884;
    }
    outlet
    {
        type            patch;
        nFaces          12;
        startFace       896;
    }
    outerWall
    {
        type            wall;
        inGroups        1(wall);
        nFaces          192;
        startFace       908;
    }
    innerWall
    {
        type            wall;
        inGroups        1(wall);
        nFaces          192;
        startFace       1100;
    }
    sym1
    {
        type            symmetryPlane;
        inGroups        1(symmetryPlane);
        nFaces          64;
        startFace       1292;
    }
    sym2
    {
        type            symmetryPlane;
        inGroups        1(symmetryPlane);
        nFaces          64;
        startFace       1356;
    }
)

// ************************************************************************* //
