/*--------------------------------*- C++ -*----------------------------------*\
| =========                 |                                                 |
| \\      /  F ield         | OpenFOAM: The Open Source CFD Toolbox           |
|  \\    /   O peration     | Version:  2412                                  |
|   \\  /    A nd           | Website:  www.openfoam.com                      |
|    \\/     M anipulation  |                                                 |
\*---------------------------------------------------------------------------*/
FoamFile
{
    version     2.0;
    format      ascii;
    arch        "LSB;label=32;scalar=64";
    class       polyBoundaryMesh;
    location    "constant/polyMesh";
    object      boundary;
}
// * * * * * * * * * * * * * * * * * * * * * * * * * * * * * * * * * * * * * //

6
(
    inlet
    {
        type            patch;
        nFaces          60;
        startFace       44340;
    }
    outlet
    {
        type            patch;
        nFaces          60;
        startFace       44400;
    }
    outerWall
    {
        type            wall;
        inGroups        1(wall);
        nFaces          9000;
        startFace       44460;
    }
    innerWall
    {
        type            wall;
        inGroups        1(wall);
        nFaces          9000;
        startFace       53460;
    }
    sym1
    {
        type            symmetryPlane;
        inGroups        1(symmetryPlane);
        nFaces          600;
        startFace       62460;
    }
    sym2
    {
        type            symmetryPlane;
        inGroups        1(symmetryPlane);
        nFaces          600;
        startFace       63060;
    }
)

// ************************************************************************* //
