/*--------------------------------*- C++ -*----------------------------------*\
| =========                 |                                                 |
| \\      /  F ield         | OpenFOAM: The Open Source CFD Toolbox           |
|  \\    /   O peration     | Version:  v2412                                 |
|   \\  /    A nd           | Website:  www.openfoam.com                      |
|    \\/     M anipulation  |                                                 |
\*---------------------------------------------------------------------------*/
FoamFile
{
    version     2.0;
    format      ascii;
    class       dictionary;
    object      fvSolution;
}
// * * * * * * * * * * * * * * * * * * * * * * * * * * * * * * * * * * * * * //

solvers
{
    "alpha.water.*"
    {
        nAlphaCorr      2;
        nAlphaSubCycles 1;
        cAlpha          1;

        MULESCorr       yes;
        nLimiterIter    3;

        solver          smoothSolver;
        smoother        symGaussSeidel;
        tolerance       1e-8;
        relTol          0;
    }

    "pcorr.*"
    {
        solver          PCG;
        preconditioner  DIC;
        tolerance       1e-5;
        relTol          0;
    }

    p_rgh
    {
		solver	GAMG;
		smoother	GaussSeidel;
		relTol	1.0E-4;
		cacheAgglomeration	true;
		nFinestSweeps	2;
		nPreSweeps	0;
		maxIter	100;
		nPostSweeps	1;
		agglomerator	faceAreaPair;
		nCellsInCoarsestLevel	10;
		tolerance	1.0E-6;
		mergeLevels	1;
    }

    p_rghFinal
    {
		solver	GAMG;
		smoother	GaussSeidel;
		relTol	1.0E-4;
		cacheAgglomeration	true;
		nFinestSweeps	2;
		nPreSweeps	0;
		maxIter	100;
		nPostSweeps	1;
		agglomerator	faceAreaPair;
		nCellsInCoarsestLevel	10;
		tolerance	1.0E-6;
		mergeLevels	1;
		minIter	1;
    }

    "(U|k|epsilon).*"
    {
        solver          PBiCGStab;
        preconditioner  DILU;
        tolerance       1e-6;
        relTol          0;
        residualAlpha   1e-8;
    }
}

PIMPLE
{
    momentumPredictor   no;
    nOuterCorrectors    2;
    nCorrectors         3;
    nNonOrthogonalCorrectors 0;
}

relaxationFactors
{
    equations
    {
        ".*"                1;
    }
}


// ************************************************************************* //
